@<TRIPOS>MOLECULE
*****
 24 25 0 0 0
SMALL
GASTEIGER

@<TRIPOS>ATOM
      1 C           2.2227   -2.1628    0.0223 C.3     1  UNL1       -0.1695
      2 N           1.2724   -1.0681    0.0102 N.ar    1  UNL1       -0.5268
      3 C          -0.0899   -1.3798    0.0038 C.ar    1  UNL1        0.4782
      4 O          -0.5414   -2.5207    0.0028 O.2     1  UNL1       -0.5103
      5 C          -0.9189   -0.2252   -0.0016 C.ar    1  UNL1       -0.0066
      6 C          -0.4322    1.0470   -0.0037 C.ar    1  UNL1        0.3921
      7 N          -1.4323    1.9716   -0.0114 N.ar    1  UNL1       -0.4549
      8 C          -2.5409    1.2589   -0.0091 C.ar    1  UNL1        0.2293
      9 N          -2.2769   -0.0845    0.0027 N.ar    1  UNL1       -0.3662
     10 C          -3.2520   -1.1447    0.0328 C.3     1  UNL1       -0.2330
     11 N           0.9173    1.3013    0.0050 N.ar    1  UNL1       -0.5197
     12 C           1.4381    2.6531    0.0115 C.3     1  UNL1       -0.1752
     13 C           1.8157    0.2324    0.0092 C.ar    1  UNL1        0.6368
     14 O           3.0368    0.4170    0.0118 O.2     1  UNL1       -0.5269
     15 H           2.8655   -2.0870   -0.8607 H       1  UNL1        0.1824
     16 H           2.8502   -2.0785    0.9157 H       1  UNL1        0.1822
     17 H           1.7364   -3.1415    0.0233 H       1  UNL1        0.1879
     18 H          -3.5463    1.6618   -0.0120 H       1  UNL1        0.1156
     19 H          -3.1010   -1.7843   -0.8402 H       1  UNL1        0.1895
     20 H          -3.1169   -1.7120    0.9573 H       1  UNL1        0.1879
     21 H          -4.2573   -0.7167    0.0065 H       1  UNL1        0.1636
     22 H           2.0812    2.7835    0.8878 H       1  UNL1        0.1814
     23 H           2.0407    2.8064   -0.8891 H       1  UNL1        0.1811
     24 H           0.6382    3.3983    0.0415 H       1  UNL1        0.1813
@<TRIPOS>BOND
     1     1     2    1
     2     2     3    1
     3     3     4    2
     4     3     5    1
     5     5     6   ar
     6     6     7   ar
     7     7     8   ar
     8     8     9   ar
     9     5     9   ar
    10     9    10    1
    11     6    11    1
    12    11    12    1
    13    11    13    1
    14     2    13    1
    15    13    14    2
    16     1    15    1
    17     1    16    1
    18     1    17    1
    19     8    18    1
    20    10    19    1
    21    10    20    1
    22    10    21    1
    23    12    22    1
    24    12    23    1
    25    12    24    1
