@<TRIPOS>MOLECULE
*****
 42 45 0 0 0
SMALL
GASTEIGER

@<TRIPOS>ATOM
      1 O           1.3443    0.8709   -0.2520 O.2     1  UNL1       -0.4997
      2 C           2.2994    0.1256   -0.0815 C.2     1  UNL1        0.5665
      3 O           2.7187   -0.2305    1.1522 O.3     1  UNL1       -0.5787
      4 C           3.0843   -0.4526   -1.1904 C.ar    1  UNL1       -0.1693
      5 C           2.7617   -0.1481   -2.4600 C.ar    1  UNL1        0.1032
      6 N           3.4389   -0.5716   -3.5902 N.ar    1  UNL1       -0.4455
      7 C           2.8993   -0.2118   -4.9177 C.3     1  UNL1        0.0773
      8 C           3.7230    0.6008   -5.8906 C.3     1  UNL1       -0.2608
      9 C           2.4839    1.1886   -5.2985 C.3     1  UNL1       -0.2523
     10 C           4.5290   -1.4785   -3.4520 C.ar    1  UNL1        0.2010
     11 C           5.2572   -1.9625   -4.5523 C.ar    1  UNL1       -0.2133
     12 C           6.3708   -2.8146   -4.4235 C.ar    1  UNL1        0.1500
     13 N           7.1192   -3.1593   -5.5353 N.pl3   1  UNL1       -0.3587
     14 C           8.5643   -3.4160   -5.4415 C.3     1  UNL1       -0.0943
     15 C           9.3033   -2.6725   -6.5824 C.3     1  UNL1       -0.0813
     16 N           8.7698   -2.9514   -7.9339 N.3     1  UNL1       -0.5102
     17 C           7.3219   -2.6568   -7.9466 C.3     1  UNL1       -0.0826
     18 C           6.5290   -3.4127   -6.8561 C.3     1  UNL1       -0.1128
     19 C           6.6939   -3.2251   -3.1180 C.ar    1  UNL1        0.1378
     20 F           7.6999   -4.0901   -2.9061 F       1  UNL1       -0.3155
     21 C           5.9918   -2.7804   -2.0023 C.ar    1  UNL1       -0.1120
     22 C           4.9316   -1.8914   -2.1723 C.ar    1  UNL1       -0.0629
     23 C           4.2329   -1.3587   -0.9837 C.ar    1  UNL1        0.3325
     24 O           4.5884   -1.6536    0.1547 O.2     1  UNL1       -0.5075
     25 H           3.5051   -0.8318    1.1528 H       1  UNL1        0.3599
     26 H           1.9132    0.4991   -2.6708 H       1  UNL1        0.1506
     27 H           2.2893   -1.0132   -5.3311 H       1  UNL1        0.1257
     28 H           4.6756    0.9943   -5.5530 H       1  UNL1        0.1710
     29 H           3.7094    0.3018   -6.9319 H       1  UNL1        0.1513
     30 H           1.6281    1.3070   -5.9538 H       1  UNL1        0.1601
     31 H           2.6078    1.9927   -4.5835 H       1  UNL1        0.1737
     32 H           4.9959   -1.6113   -5.5435 H       1  UNL1        0.1615
     33 H           8.9928   -3.0632   -4.4973 H       1  UNL1        0.1633
     34 H           8.7446   -4.4947   -5.5157 H       1  UNL1        0.1587
     35 H           9.2546   -1.5904   -6.4032 H       1  UNL1        0.1545
     36 H          10.3644   -2.9451   -6.5614 H       1  UNL1        0.1411
     37 H           8.8906   -3.9483   -8.1155 H       1  UNL1        0.2546
     38 H           7.1754   -1.5760   -7.8274 H       1  UNL1        0.1481
     39 H           6.9213   -2.9229   -8.9310 H       1  UNL1        0.1360
     40 H           6.5733   -4.4909   -7.0536 H       1  UNL1        0.1506
     41 H           5.4721   -3.1347   -6.9228 H       1  UNL1        0.1340
     42 H           6.2906   -3.1226   -1.0158 H       1  UNL1        0.1947
@<TRIPOS>BOND
     1     1     2    2
     2     2     3    1
     3     2     4    1
     4     4     5    2
     5     5     6    1
     6     6     7    1
     7     7     8    1
     8     8     9    1
     9     7     9    1
    10     6    10   ar
    11    10    11   ar
    12    11    12   ar
    13    12    13    1
    14    13    14    1
    15    14    15    1
    16    15    16    1
    17    16    17    1
    18    17    18    1
    19    13    18    1
    20    12    19   ar
    21    19    20    1
    22    19    21   ar
    23    21    22   ar
    24    10    22   ar
    25    22    23    1
    26     4    23    1
    27    23    24    2
    28     3    25    1
    29     5    26    1
    30     7    27    1
    31     8    28    1
    32     8    29    1
    33     9    30    1
    34     9    31    1
    35    11    32    1
    36    14    33    1
    37    14    34    1
    38    15    35    1
    39    15    36    1
    40    16    37    1
    41    17    38    1
    42    17    39    1
    43    18    40    1
    44    18    41    1
    45    21    42    1
