@<TRIPOS>MOLECULE
Clofazimine
 55 59 0 0 0
SMALL
GASTEIGER

@<TRIPOS>ATOM
      1 C           0.8020    2.9115    0.7578 C.3     1  UNL1       -0.4390
      2 C           0.6056    1.4777    0.2730 C.3     1  UNL1        0.1388
      3 C           1.0020    0.4539    1.3325 C.3     1  UNL1       -0.4416
      4 N          -0.7985    1.2698   -0.0276 N.2     1  UNL1       -0.4406
      5 C          -1.3331    0.7872   -1.0913 C.2     1  UNL1        0.1654
      6 C          -2.8302    0.7791   -1.0681 C.2     1  UNL1       -0.2080
      7 C          -3.6605    0.5960   -2.1137 C.2     1  UNL1        0.1482
      8 N          -5.0861    0.7240   -2.1667 N.pl3   1  UNL1       -0.4506
      9 C          -5.8252    1.1525   -0.9933 C.ar    1  UNL1        0.1939
     10 C          -5.3843    2.2252   -0.1924 C.ar    1  UNL1       -0.1623
     11 C          -6.0373    2.5767    0.9963 C.ar    1  UNL1       -0.1243
     12 C          -7.2114    1.9287    1.3566 C.ar    1  UNL1        0.0261
     13 CL         -8.0302    2.3724    2.8020 Cl      1  UNL1       -0.0839
     14 C          -7.7189    0.9156    0.5527 C.ar    1  UNL1       -0.1250
     15 C          -7.0080    0.5043   -0.5840 C.ar    1  UNL1       -0.1636
     16 C          -5.7380    0.3671   -3.4267 C.ar    1  UNL1        0.1337
     17 C          -7.1152    0.5173   -3.6633 C.ar    1  UNL1       -0.1576
     18 C          -7.7151    0.0722   -4.8515 C.ar    1  UNL1       -0.1072
     19 C          -6.9423   -0.4731   -5.8650 C.ar    1  UNL1       -0.1067
     20 C          -5.5644   -0.5523   -5.6952 C.ar    1  UNL1       -0.1469
     21 C          -4.9655   -0.1319   -4.4993 C.ar    1  UNL1        0.1654
     22 N          -3.5749   -0.2211   -4.4638 N.2     1  UNL1       -0.4365
     23 C          -2.9770    0.1295   -3.3662 C.2     1  UNL1        0.1962
     24 C          -1.5164   -0.0171   -3.3780 C.2     1  UNL1       -0.2201
     25 C          -0.7045    0.2750   -2.3561 C.2     1  UNL1        0.2014
     26 N           0.6565    0.0440   -2.4102 N.pl3   1  UNL1       -0.6570
     27 C           1.5767    0.6402   -3.3000 C.ar    1  UNL1        0.2440
     28 C           1.1984    1.4734   -4.3628 C.ar    1  UNL1       -0.1722
     29 C           2.1383    1.9302   -5.2930 C.ar    1  UNL1       -0.1206
     30 C           3.4724    1.5616   -5.1635 C.ar    1  UNL1        0.0233
     31 CL          4.6207    2.0723   -6.3370 Cl      1  UNL1       -0.0832
     32 C           3.8787    0.7655   -4.0972 C.ar    1  UNL1       -0.1209
     33 C           2.9332    0.3042   -3.1761 C.ar    1  UNL1       -0.1832
     34 H          -0.0024    3.2427    1.4205 H       1  UNL1        0.1826
     35 H           0.8201    3.5901   -0.1040 H       1  UNL1        0.1728
     36 H           1.7588    3.0266    1.2788 H       1  UNL1        0.1615
     37 H           1.2776    1.3828   -0.5752 H       1  UNL1        0.1143
     38 H           0.2597    0.3992    2.1367 H       1  UNL1        0.1831
     39 H           1.0675   -0.5441    0.8842 H       1  UNL1        0.1694
     40 H           1.9752    0.6853    1.7758 H       1  UNL1        0.1606
     41 H          -3.2106    1.0116   -0.0789 H       1  UNL1        0.1758
     42 H          -4.5047    2.8007   -0.4722 H       1  UNL1        0.1538
     43 H          -5.6204    3.3561    1.6293 H       1  UNL1        0.1415
     44 H          -8.6542    0.4253    0.8110 H       1  UNL1        0.1411
     45 H          -7.3976   -0.3439   -1.1422 H       1  UNL1        0.1515
     46 H          -7.7731    0.9835   -2.9367 H       1  UNL1        0.1500
     47 H          -8.7910    0.1585   -4.9829 H       1  UNL1        0.1312
     48 H          -7.3954   -0.8174   -6.7906 H       1  UNL1        0.1327
     49 H          -4.9402   -0.9382   -6.4945 H       1  UNL1        0.1584
     50 H          -1.1066   -0.4265   -4.2967 H       1  UNL1        0.1844
     51 H           1.0602   -0.2485   -1.5283 H       1  UNL1        0.2653
     52 H           0.1666    1.7874   -4.4944 H       1  UNL1        0.1578
     53 H           1.8155    2.5583   -6.1181 H       1  UNL1        0.1428
     54 H           4.9208    0.4837   -3.9860 H       1  UNL1        0.1400
     55 H           3.2667   -0.3326   -2.3602 H       1  UNL1        0.1443
@<TRIPOS>BOND
     1     1     2    1
     2     2     3    1
     3     2     4    1
     4     4     5    2
     5     5     6    1
     6     6     7    2
     7     7     8    1
     8     8     9    1
     9     9    10   ar
    10    10    11   ar
    11    11    12   ar
    12    12    13    1
    13    12    14   ar
    14    14    15   ar
    15     9    15   ar
    16     8    16    1
    17    16    17   ar
    18    17    18   ar
    19    18    19   ar
    20    19    20   ar
    21    20    21   ar
    22    16    21   ar
    23    21    22    1
    24    22    23    2
    25     7    23    1
    26    23    24    1
    27    24    25    2
    28     5    25    1
    29    25    26    1
    30    26    27    1
    31    27    28   ar
    32    28    29   ar
    33    29    30   ar
    34    30    31    1
    35    30    32   ar
    36    32    33   ar
    37    27    33   ar
    38     1    34    1
    39     1    35    1
    40     1    36    1
    41     2    37    1
    42     3    38    1
    43     3    39    1
    44     3    40    1
    45     6    41    1
    46    10    42    1
    47    11    43    1
    48    14    44    1
    49    15    45    1
    50    17    46    1
    51    18    47    1
    52    19    48    1
    53    20    49    1
    54    24    50    1
    55    26    51    1
    56    28    52    1
    57    29    53    1
    58    32    54    1
    59    33    55    1
