@<TRIPOS>MOLECULE
*****
 26 27 0 0 0
SMALL
GASTEIGER

@<TRIPOS>ATOM
      1 N          -3.7635   -0.3247    2.0136 N.pl3   1  UNL1       -0.7637
      2 C          -3.3246    0.9566    1.8098 C.ar    1  UNL1        0.5046
      3 N          -2.0592    1.1958    2.0018 N.ar    1  UNL1       -0.4821
      4 C          -1.5513    2.4546    1.7497 C.ar    1  UNL1        0.6895
      5 O          -0.3668    2.7086    1.9572 O.2     1  UNL1       -0.4799
      6 N          -2.4136    3.4410    1.2522 N.ar    1  UNL1       -0.5209
      7 C          -1.8189    4.7133    0.8710 C.3     1  UNL1        0.2966
      8 C          -1.6821    5.7016    2.0321 C.3     1  UNL1        0.1357
      9 S          -1.3710    7.2708    1.1902 S.3     1  UNL1       -1.1958
     10 C          -2.1066    6.6608   -0.3608 C.3     1  UNL1        0.4466
     11 C          -3.2364    7.5826   -0.8353 C.3     1  UNL1       -0.0231
     12 O          -2.7777    8.8958   -1.1428 O.3     1  UNL1       -0.5055
     13 O          -2.6347    5.3497   -0.1318 O.3     1  UNL1       -0.4911
     14 C          -3.7701    3.2126    1.1326 C.ar    1  UNL1        0.1180
     15 C          -4.2721    2.0125    1.3936 C.ar    1  UNL1        0.0862
     16 F          -5.5759    1.7013    1.2916 F       1  UNL1       -0.2742
     17 H          -4.7532   -0.4764    2.1661 H       1  UNL1        0.3565
     18 H          -3.1389   -0.9094    2.5577 H       1  UNL1        0.3618
     19 H          -0.8370    4.5147    0.4193 H       1  UNL1        0.1860
     20 H          -2.6203    5.8029    2.5870 H       1  UNL1        0.1987
     21 H          -0.8827    5.4385    2.7293 H       1  UNL1        0.2045
     22 H          -1.3193    6.6006   -1.1205 H       1  UNL1        0.1697
     23 H          -3.6964    7.1662   -1.7382 H       1  UNL1        0.1954
     24 H          -4.0363    7.6507   -0.0885 H       1  UNL1        0.2102
     25 H          -2.3915    9.2553   -0.3219 H       1  UNL1        0.3880
     26 H          -4.4073    4.0276    0.8053 H       1  UNL1        0.1881
@<TRIPOS>BOND
     1     1     2    1
     2     2     3    2
     3     3     4    1
     4     4     5    2
     5     4     6    1
     6     7     8    1
     7     8     9    1
     8     9    10    1
     9    11    12    1
    10    10    13    1
    11     7    13    1
    12     6    14    1
    13    14    15    2
    14     2    15    1
    15    15    16    1
    16     1    17    1
    17     1    18    1
    18     8    20    1
    19     8    21    1
    20    11    23    1
    21    11    24    1
    22    12    25    1
    23    14    26    1
    24     7    19    1
    25     7     6    1
    26    10    22    1
    27    10    11    1
