@<TRIPOS>MOLECULE
*****
 53 57 0 0 0
SMALL
GASTEIGER

@<TRIPOS>ATOM
      1 C           0.7709   -0.4759    0.4784 C.3     1  UNL1       -0.1910
      2 O           0.4561   -1.6724   -0.1821 O.3     1  UNL1       -0.4738
      3 C           0.9645   -1.9841   -1.4202 C.ar    1  UNL1        0.1585
      4 C           2.3370   -1.8088   -1.8325 C.ar    1  UNL1        0.0658
      5 N           3.3267   -1.1119   -1.1111 N.pl3   1  UNL1       -0.3322
      6 C           4.7611   -1.4593   -1.2474 C.3     1  UNL1       -0.1115
      7 C           5.4936   -0.4028   -0.4048 C.3     1  UNL1       -0.0959
      8 C           5.4773   -0.7607    1.0854 C.3     1  UNL1       -0.2141
      9 C           5.7064    0.4619    1.9643 C.3     1  UNL1       -0.2410
     10 C           4.7644    1.6002    1.5903 C.3     1  UNL1       -0.0634
     11 N           4.8999    1.9856    0.1803 N.3     1  UNL1       -0.5582
     12 C           4.7012    0.8603   -0.7519 C.3     1  UNL1        0.0678
     13 C           3.2477    0.3459   -0.8766 C.3     1  UNL1       -0.1350
     14 C           2.6847   -2.5200   -3.0137 C.ar    1  UNL1        0.1484
     15 F           3.9268   -2.4609   -3.5211 F       1  UNL1       -0.3232
     16 C           1.8085   -3.3360   -3.7267 C.ar    1  UNL1       -0.1227
     17 C           0.4905   -3.4712   -3.3166 C.ar    1  UNL1       -0.0523
     18 C          -0.3947   -4.3706   -4.0991 C.ar    1  UNL1        0.3496
     19 O           0.0439   -4.9260   -5.1002 O.2     1  UNL1       -0.4683
     20 C          -1.7937   -4.5244   -3.6582 C.ar    1  UNL1       -0.1430
     21 C          -2.8080   -5.3843   -4.2902 C.2     1  UNL1        0.5503
     22 O          -4.0116   -5.2582   -4.1660 O.2     1  UNL1       -0.5286
     23 O          -2.3010   -6.4050   -4.9960 O.3     1  UNL1       -0.5816
     24 C          -2.1701   -3.7931   -2.6034 C.ar    1  UNL1        0.0838
     25 N          -1.3798   -2.9512   -1.8378 N.ar    1  UNL1       -0.4043
     26 C          -2.0517   -2.1188   -0.8078 C.3     1  UNL1        0.1058
     27 C          -2.1533   -2.6306    0.6142 C.3     1  UNL1       -0.2272
     28 C          -3.3985   -2.3597   -0.1625 C.3     1  UNL1       -0.2750
     29 C           0.0197   -2.7871   -2.1816 C.ar    1  UNL1        0.1337
     30 H          -0.0293   -0.2399    1.1854 H       1  UNL1        0.1462
     31 H           0.8170    0.3747   -0.2078 H       1  UNL1        0.1474
     32 H           1.6627   -0.6421    1.0854 H       1  UNL1        0.1552
     33 H           4.9643   -2.4791   -0.9056 H       1  UNL1        0.1549
     34 H           5.1192   -1.3356   -2.2747 H       1  UNL1        0.1689
     35 H           6.5371   -0.2963   -0.7270 H       1  UNL1        0.1288
     36 H           4.5249   -1.2273    1.3645 H       1  UNL1        0.1578
     37 H           6.2551   -1.5077    1.2864 H       1  UNL1        0.1397
     38 H           5.5520    0.1865    3.0145 H       1  UNL1        0.1381
     39 H           6.7461    0.7978    1.8726 H       1  UNL1        0.1477
     40 H           3.7290    1.3300    1.8278 H       1  UNL1        0.1290
     41 H           4.9885    2.4732    2.2142 H       1  UNL1        0.1287
     42 H           5.8398    2.3589    0.0439 H       1  UNL1        0.2512
     43 H           5.0033    1.2077   -1.7489 H       1  UNL1        0.1235
     44 H           2.6829    0.8894   -1.6401 H       1  UNL1        0.1487
     45 H           2.8083    0.5401    0.0915 H       1  UNL1        0.1478
     46 H           2.1820   -3.8684   -4.5978 H       1  UNL1        0.1971
     47 H          -3.0852   -6.8719   -5.3530 H       1  UNL1        0.3239
     48 H          -3.2044   -3.8476   -2.2759 H       1  UNL1        0.1471
     49 H          -1.8427   -1.0619   -0.9683 H       1  UNL1        0.1351
     50 H          -1.8866   -3.6655    0.7990 H       1  UNL1        0.1761
     51 H          -1.8807   -1.9551    1.4140 H       1  UNL1        0.1588
     52 H          -3.9794   -1.4872    0.1210 H       1  UNL1        0.1579
     53 H          -4.0107   -3.2121   -0.4211 H       1  UNL1        0.1686
@<TRIPOS>BOND
     1     1     2    1
     2     2     3    1
     3     3     4   ar
     4     4     5    1
     5     5     6    1
     6     6     7    1
     7     7     8    1
     8     8     9    1
     9     9    10    1
    10    10    11    1
    11    11    12    1
    12     7    12    1
    13    12    13    1
    14     5    13    1
    15     4    14   ar
    16    14    15    1
    17    14    16   ar
    18    16    17   ar
    19    17    18    1
    20    18    19    2
    21    18    20    1
    22    20    21    1
    23    21    22    2
    24    21    23    1
    25    20    24    2
    26    24    25    1
    27    25    26    1
    28    26    27    1
    29    27    28    1
    30    26    28    1
    31    25    29    1
    32     3    29   ar
    33    17    29   ar
    34     1    30    1
    35     1    31    1
    36     1    32    1
    37     6    33    1
    38     6    34    1
    39     7    35    1
    40     8    36    1
    41     8    37    1
    42     9    38    1
    43     9    39    1
    44    10    40    1
    45    10    41    1
    46    11    42    1
    47    12    43    1
    48    13    44    1
    49    13    45    1
    50    16    46    1
    51    23    47    1
    52    24    48    1
    53    26    49    1
    54    27    50    1
    55    27    51    1
    56    28    52    1
    57    28    53    1
