@<TRIPOS>MOLECULE
*****
 59 63 0 0 0
SMALL
GASTEIGER

@<TRIPOS>ATOM
      1 O           1.3508   -0.0536   -0.1209 O.2     1  UNL1       -0.5246
      2 C           2.5018    0.3273    0.0699 C.2     1  UNL1        0.4959
      3 N           3.0735    1.4921   -0.4244 N.am    1  UNL1       -0.6551
      4 C           2.3933    2.5135   -1.1488 C.ar    1  UNL1        0.2275
      5 C           1.0007    2.5035   -1.3272 C.ar    1  UNL1       -0.1361
      6 C           0.3401    3.5310   -2.0061 C.ar    1  UNL1       -0.0907
      7 C           1.0612    4.6044   -2.5053 C.ar    1  UNL1       -0.0780
      8 C           2.4465    4.6325   -2.3367 C.ar    1  UNL1       -0.0689
      9 C           3.2046    5.7850   -2.8376 C.2     1  UNL1        0.3523
     10 O           2.6690    6.7409   -3.3823 O.2     1  UNL1       -0.4913
     11 C           4.6545    5.7400   -2.6584 C.2     1  UNL1       -0.2175
     12 C           5.2209    4.6747   -2.0703 C.2     1  UNL1        0.2211
     13 C           6.6448    4.5593   -1.9274 C.2     1  UNL1        0.2829
     14 N           7.2091    3.4151   -1.4208 N.2     1  UNL1       -0.2233
     15 N           8.5227    3.5940   -1.4465 N.2     1  UNL1       -0.0510
     16 N           8.6895    4.8180   -1.9608 N.pl3   1  UNL1       -0.2804
     17 N           7.5653    5.4758   -2.2811 N.2     1  UNL1       -0.2388
     18 O           4.4979    3.5977   -1.5551 O.3     1  UNL1       -0.4862
     19 C           3.1228    3.5943   -1.6833 C.ar    1  UNL1        0.1915
     20 C           3.3841   -0.5769    0.8590 C.ar    1  UNL1       -0.0499
     21 C           3.1357   -1.9546    0.7767 C.ar    1  UNL1       -0.0643
     22 C           3.9306   -2.8680    1.4747 C.ar    1  UNL1       -0.1874
     23 C           4.9828   -2.4144    2.2698 C.ar    1  UNL1        0.2659
     24 O           5.8598   -3.2217    2.9513 O.3     1  UNL1       -0.5052
     25 C           5.9676   -4.5621    2.4602 C.3     1  UNL1       -0.0380
     26 C           7.2941   -5.1901    2.8885 C.3     1  UNL1       -0.2332
     27 C           7.4530   -5.4044    4.3990 C.3     1  UNL1       -0.1948
     28 C           8.8175   -6.0545    4.6837 C.3     1  UNL1       -0.2731
     29 C           9.1124   -6.3168    6.1410 C.ar    1  UNL1        0.0579
     30 C           9.3647   -7.6207    6.5929 C.ar    1  UNL1       -0.1483
     31 C           9.7237   -7.8577    7.9227 C.ar    1  UNL1       -0.0961
     32 C           9.8361   -6.7950    8.8147 C.ar    1  UNL1       -0.1104
     33 C           9.5828   -5.4949    8.3813 C.ar    1  UNL1       -0.0959
     34 C           9.2251   -5.2572    7.0496 C.ar    1  UNL1       -0.1439
     35 C           5.1840   -1.0363    2.4116 C.ar    1  UNL1       -0.1538
     36 C           4.3944   -0.1146    1.7060 C.ar    1  UNL1       -0.0829
     37 H           4.0753    1.6153   -0.3259 H       1  UNL1        0.3156
     38 H           0.3768    1.7059   -0.9368 H       1  UNL1        0.1976
     39 H          -0.7400    3.4901   -2.1271 H       1  UNL1        0.1495
     40 H           0.5466    5.4144   -3.0177 H       1  UNL1        0.1719
     41 H           5.2194    6.5825   -3.0398 H       1  UNL1        0.2021
     42 H           9.6121    5.2211   -2.1023 H       1  UNL1        0.2561
     43 H           2.3171   -2.3239    0.1603 H       1  UNL1        0.1638
     44 H           3.6987   -3.9236    1.3763 H       1  UNL1        0.1521
     45 H           5.1262   -5.1603    2.8280 H       1  UNL1        0.1346
     46 H           5.9612   -4.5642    1.3619 H       1  UNL1        0.1332
     47 H           7.3928   -6.1577    2.3811 H       1  UNL1        0.1411
     48 H           8.1141   -4.5512    2.5384 H       1  UNL1        0.1640
     49 H           7.3670   -4.4456    4.9226 H       1  UNL1        0.1662
     50 H           6.6481   -6.0493    4.7733 H       1  UNL1        0.1515
     51 H           8.8822   -6.9977    4.1256 H       1  UNL1        0.1496
     52 H           9.6203   -5.4175    4.2899 H       1  UNL1        0.1558
     53 H           9.3035   -8.4634    5.9084 H       1  UNL1        0.1388
     54 H           9.9287   -8.8709    8.2590 H       1  UNL1        0.1351
     55 H          10.1262   -6.9764    9.8471 H       1  UNL1        0.1377
     56 H           9.6759   -4.6625    9.0746 H       1  UNL1        0.1367
     57 H           9.0558   -4.2343    6.7261 H       1  UNL1        0.1433
     58 H           5.9714   -0.6771    3.0705 H       1  UNL1        0.1707
     59 H           4.5659    0.9480    1.8511 H       1  UNL1        0.1565
@<TRIPOS>BOND
     1     1     2    2
     2     2     3   am
     3     3     4    1
     4     4     5   ar
     5     5     6   ar
     6     6     7   ar
     7     7     8   ar
     8     8     9    1
     9     9    10    2
    10     9    11    1
    11    11    12    2
    12    12    13    1
    13    13    14    1
    14    14    15    2
    15    15    16    1
    16    16    17    1
    17    13    17    2
    18    12    18    1
    19    18    19    1
    20     4    19   ar
    21     8    19   ar
    22     2    20    1
    23    20    21   ar
    24    21    22   ar
    25    22    23   ar
    26    23    24    1
    27    24    25    1
    28    25    26    1
    29    26    27    1
    30    27    28    1
    31    28    29    1
    32    29    30   ar
    33    30    31   ar
    34    31    32   ar
    35    32    33   ar
    36    33    34   ar
    37    29    34   ar
    38    23    35   ar
    39    35    36   ar
    40    20    36   ar
    41     3    37    1
    42     5    38    1
    43     6    39    1
    44     7    40    1
    45    11    41    1
    46    16    42    1
    47    21    43    1
    48    22    44    1
    49    25    45    1
    50    25    46    1
    51    26    47    1
    52    26    48    1
    53    27    49    1
    54    27    50    1
    55    28    51    1
    56    28    52    1
    57    30    53    1
    58    31    54    1
    59    32    55    1
    60    33    56    1
    61    34    57    1
    62    35    58    1
    63    36    59    1
