@<TRIPOS>MOLECULE
*****
 64 67 0 0 0
SMALL
GASTEIGER

@<TRIPOS>ATOM
      1 C           0.0780    3.6123    2.2941 C.3     1  UNL1       -0.3996
      2 C           0.0457    3.6103    0.7718 C.3     1  UNL1       -0.0567
      3 N           0.9241    2.5686    0.2238 N.pl3   1  UNL1       -0.4130
      4 C           0.2735    1.2685   -0.0230 C.3     1  UNL1       -0.0596
      5 C          -0.2508    1.1844   -1.4489 C.3     1  UNL1       -0.4010
      6 C           2.2847    2.7628    0.0267 C.ar    1  UNL1        0.2211
      7 C           3.0963    1.7668   -0.5358 C.ar    1  UNL1       -0.1683
      8 C           4.4782    1.9235   -0.7022 C.ar    1  UNL1       -0.0903
      9 C           5.1111    3.1120   -0.3370 C.ar    1  UNL1       -0.0368
     10 C           6.5695    3.2958   -0.4971 C.2     1  UNL1        0.0077
     11 C           7.4661    2.1599   -0.8381 C.ar    1  UNL1        0.0243
     12 C           7.7095    1.8872   -2.1958 C.ar    1  UNL1       -0.1314
     13 C           8.4704    0.7810   -2.5702 C.ar    1  UNL1       -0.0887
     14 C           8.9904   -0.0694   -1.6013 C.ar    1  UNL1       -0.0982
     15 C           8.7606    0.1842   -0.2476 C.ar    1  UNL1       -0.0736
     16 C           8.0026    1.3002    0.1440 C.ar    1  UNL1       -0.0572
     17 C           7.7997    1.5559    1.5952 C.2     1  UNL1        0.5151
     18 O           7.7181    2.6379    2.1451 O.2     1  UNL1       -0.5103
     19 O           7.7126    0.4063    2.2889 O.3     1  UNL1       -0.6050
     20 C           7.0681    4.5379   -0.2703 C.2     1  UNL1       -0.0212
     21 C           8.4704    4.8526   -0.5212 C.2     1  UNL1       -0.0830
     22 C           8.9965    6.0467   -0.2311 C.2     1  UNL1       -0.1598
     23 C           8.1754    7.1333    0.3969 C.2     1  UNL1        0.2325
     24 N           8.7096    8.2665    0.7722 N.2     1  UNL1       -0.4235
     25 C           7.9098    9.4448    1.2766 C.3     1  UNL1       -0.0656
     26 C           7.7223    9.3498    2.7786 C.3     1  UNL1       -0.3938
     27 C          10.2024    8.5224    0.7381 C.3     1  UNL1       -0.0679
     28 C          10.5960    9.1087   -0.6050 C.3     1  UNL1       -0.3975
     29 C           6.7137    6.8161    0.5555 C.2     1  UNL1       -0.2208
     30 C           6.2080    5.6093    0.2433 C.2     1  UNL1        0.2682
     31 O           4.8573    5.3668    0.4847 O.2     1  UNL1       -0.5168
     32 C           4.3274    4.1384    0.1673 C.ar    1  UNL1        0.2702
     33 C           2.9460    3.9600    0.3632 C.ar    1  UNL1       -0.2185
     34 H          -0.0578    2.6043    2.6997 H       1  UNL1        0.1852
     35 H          -0.7223    4.2474    2.6864 H       1  UNL1        0.1753
     36 H           1.0291    3.9978    2.6729 H       1  UNL1        0.1857
     37 H          -0.9874    3.4199    0.4511 H       1  UNL1        0.1385
     38 H           0.2854    4.6005    0.3705 H       1  UNL1        0.1399
     39 H           0.9292    0.4224    0.2036 H       1  UNL1        0.1385
     40 H          -0.5753    1.1482    0.6655 H       1  UNL1        0.1391
     41 H           0.5671    1.1334   -2.1743 H       1  UNL1        0.1811
     42 H          -0.8671    0.2879   -1.5724 H       1  UNL1        0.1746
     43 H          -0.8655    2.0550   -1.7005 H       1  UNL1        0.1833
     44 H           2.6789    0.8231   -0.8737 H       1  UNL1        0.1535
     45 H           5.0298    1.0926   -1.1344 H       1  UNL1        0.1542
     46 H           7.2830    2.5247   -2.9692 H       1  UNL1        0.1520
     47 H           8.6441    0.5736   -3.6257 H       1  UNL1        0.1466
     48 H           9.5703   -0.9407   -1.8957 H       1  UNL1        0.1523
     49 H           9.1740   -0.4917    0.4964 H       1  UNL1        0.1732
     50 H           7.5457    0.6815    3.2156 H       1  UNL1        0.3250
     51 H           9.1119    4.1094   -0.9877 H       1  UNL1        0.1538
     52 H          10.0375    6.2065   -0.4841 H       1  UNL1        0.1524
     53 H           8.4600   10.3569    1.0195 H       1  UNL1        0.1408
     54 H           6.9596    9.4891    0.7385 H       1  UNL1        0.1425
     55 H           8.6820    9.3755    3.3055 H       1  UNL1        0.1827
     56 H           7.1265   10.1981    3.1323 H       1  UNL1        0.1752
     57 H           7.2058    8.4302    3.0706 H       1  UNL1        0.1894
     58 H          10.4455    9.2146    1.5516 H       1  UNL1        0.1423
     59 H          10.7337    7.5914    0.9568 H       1  UNL1        0.1434
     60 H          10.1098   10.0743   -0.7769 H       1  UNL1        0.1804
     61 H          11.6787    9.2676   -0.6426 H       1  UNL1        0.1747
     62 H          10.3247    8.4505   -1.4373 H       1  UNL1        0.1816
     63 H           6.0363    7.5532    0.9700 H       1  UNL1        0.1814
     64 H           2.3984    4.7921    0.7943 H       1  UNL1        0.1802
@<TRIPOS>UNITY_ATOM_ATTR
24 1
charge 1
@<TRIPOS>BOND
     1     1     2    1
     2     2     3    1
     3     3     4    1
     4     4     5    1
     5     3     6    1
     6     6     7   ar
     7     7     8   ar
     8     8     9   ar
     9     9    10   ar
    10    10    11    1
    11    11    12   ar
    12    12    13   ar
    13    13    14   ar
    14    14    15   ar
    15    15    16   ar
    16    11    16   ar
    17    16    17    1
    18    17    18    2
    19    17    19    1
    20    10    20    2
    21    20    21    1
    22    21    22    2
    23    22    23    1
    24    23    24    2
    25    24    25    1
    26    25    26    1
    27    24    27    1
    28    27    28    1
    29    23    29    1
    30    29    30    2
    31    20    30    1
    32    30    31    1
    33    31    32    1
    34     9    32   ar
    35    32    33   ar
    36     6    33   ar
    37     1    34    1
    38     1    35    1
    39     1    36    1
    40     2    37    1
    41     2    38    1
    42     4    39    1
    43     4    40    1
    44     5    41    1
    45     5    42    1
    46     5    43    1
    47     7    44    1
    48     8    45    1
    49    12    46    1
    50    13    47    1
    51    14    48    1
    52    15    49    1
    53    19    50    1
    54    21    51    1
    55    22    52    1
    56    25    53    1
    57    25    54    1
    58    26    55    1
    59    26    56    1
    60    26    57    1
    61    27    58    1
    62    27    59    1
    63    28    60    1
    64    28    61    1
    65    28    62    1
    66    29    63    1
    67    33    64    1
