@<TRIPOS>MOLECULE
*****
 57 61 0 0 0
SMALL
GASTEIGER

@<TRIPOS>ATOM
      1 C           2.8183    1.5352    0.1243 C.3     1  UNL1       -0.4570
      2 C           4.0790    0.7938   -0.2412 C.ar    1  UNL1        0.2631
      3 N           5.0860    1.6440   -0.6462 N.ar    1  UNL1       -0.5354
      4 C           6.1231    1.1394   -1.2382 C.ar    1  UNL1        0.4365
      5 N           6.3111   -0.2095   -1.4002 N.pl3   1  UNL1       -0.5511
      6 C           5.5155   -1.0773   -0.6791 C.ar    1  UNL1        0.4745
      7 O           5.8433   -2.2310   -0.4060 O.2     1  UNL1       -0.5403
      8 C           4.1936   -0.5473   -0.2510 C.ar    1  UNL1       -0.1484
      9 C           3.1103   -1.5876   -0.0636 C.3     1  UNL1       -0.2141
     10 C           3.1978   -2.4634    1.2093 C.3     1  UNL1       -0.1134
     11 N           2.1795   -3.5583    1.2722 N.3     1  UNL1       -0.3478
     12 C           2.3449   -4.4966    0.1462 C.3     1  UNL1       -0.0961
     13 C           1.4091   -5.7029    0.2188 C.3     1  UNL1       -0.2372
     14 C           1.5695   -6.4474    1.5428 C.3     1  UNL1       -0.0846
     15 C           0.6820   -7.6587    1.6136 C.ar    1  UNL1        0.1228
     16 N           1.2407   -8.8794    1.6430 N.ar    1  UNL1       -0.1818
     17 O           0.1917   -9.7812    1.6801 O.ar    1  UNL1       -0.4338
     18 C          -0.9877   -9.1085    1.6743 C.ar    1  UNL1        0.2896
     19 C          -2.2561   -9.6794    1.7109 C.ar    1  UNL1       -0.2270
     20 C          -3.3192   -8.7798    1.6975 C.ar    1  UNL1        0.2217
     21 F          -4.5716   -9.2548    1.7448 F       1  UNL1       -0.3235
     22 C          -3.1252   -7.4000    1.6382 C.ar    1  UNL1       -0.1658
     23 C          -1.8318   -6.8626    1.5959 C.ar    1  UNL1       -0.1096
     24 C          -0.7380   -7.7465    1.6252 C.ar    1  UNL1       -0.0687
     25 C           1.3592   -5.4639    2.6977 C.3     1  UNL1       -0.2369
     26 C           2.3024   -4.2605    2.5675 C.3     1  UNL1       -0.1058
     27 C           7.5010   -0.7858   -2.0154 C.3     1  UNL1       -0.0301
     28 C           8.3378    0.1857   -2.8228 C.3     1  UNL1       -0.2447
     29 C           8.4988    1.4796   -2.0522 C.3     1  UNL1       -0.1869
     30 C           7.1278    2.0959   -1.8496 C.3     1  UNL1       -0.3039
     31 H           3.0186    2.2191    0.9563 H       1  UNL1        0.1846
     32 H           2.4709    2.1308   -0.7280 H       1  UNL1        0.1837
     33 H           1.9985    0.8846    0.4314 H       1  UNL1        0.1681
     34 H           2.1153   -1.1355   -0.1092 H       1  UNL1        0.1472
     35 H           3.1689   -2.2243   -0.9541 H       1  UNL1        0.1591
     36 H           4.2004   -2.8948    1.3102 H       1  UNL1        0.1624
     37 H           3.0521   -1.8021    2.0739 H       1  UNL1        0.1411
     38 H           3.3827   -4.8468    0.0844 H       1  UNL1        0.1424
     39 H           2.1080   -3.9910   -0.7954 H       1  UNL1        0.1333
     40 H           1.6239   -6.3768   -0.6207 H       1  UNL1        0.1522
     41 H           0.3720   -5.3668    0.0878 H       1  UNL1        0.1571
     42 H           2.6112   -6.7981    1.6005 H       1  UNL1        0.1505
     43 H          -2.4102  -10.7491    1.7501 H       1  UNL1        0.1934
     44 H          -3.9906   -6.7427    1.6250 H       1  UNL1        0.1610
     45 H          -1.6874   -5.7868    1.5442 H       1  UNL1        0.1338
     46 H           0.3215   -5.1102    2.7264 H       1  UNL1        0.1562
     47 H           1.5408   -5.9677    3.6560 H       1  UNL1        0.1500
     48 H           2.0673   -3.5617    3.3803 H       1  UNL1        0.1324
     49 H           3.3336   -4.6038    2.7232 H       1  UNL1        0.1352
     50 H           8.1122   -1.2247   -1.2177 H       1  UNL1        0.1491
     51 H           7.1783   -1.6151   -2.6583 H       1  UNL1        0.1443
     52 H           7.8575    0.3874   -3.7926 H       1  UNL1        0.1514
     53 H           9.3175   -0.2576   -3.0453 H       1  UNL1        0.1381
     54 H           9.1492    2.1720   -2.5988 H       1  UNL1        0.1338
     55 H           8.9721    1.2796   -1.0833 H       1  UNL1        0.1477
     56 H           6.7207    2.4325   -2.8118 H       1  UNL1        0.1624
     57 H           7.2124    2.9811   -1.2098 H       1  UNL1        0.1651
@<TRIPOS>BOND
     1     1     2    1
     2     2     3    1
     3     3     4    2
     4     4     5    1
     5     5     6    1
     6     6     7    2
     7     6     8    1
     8     2     8    2
     9     8     9    1
    10     9    10    1
    11    10    11    1
    12    11    12    1
    13    12    13    1
    14    13    14    1
    15    14    15    1
    16    15    16    2
    17    16    17    1
    18    17    18    1
    19    18    19   ar
    20    19    20   ar
    21    20    21    1
    22    20    22   ar
    23    22    23   ar
    24    23    24   ar
    25    15    24    1
    26    18    24   ar
    27    14    25    1
    28    25    26    1
    29    11    26    1
    30     5    27    1
    31    27    28    1
    32    28    29    1
    33    29    30    1
    34     4    30    1
    35     1    31    1
    36     1    32    1
    37     1    33    1
    38     9    34    1
    39     9    35    1
    40    10    36    1
    41    10    37    1
    42    12    38    1
    43    12    39    1
    44    13    40    1
    45    13    41    1
    46    14    42    1
    47    19    43    1
    48    22    44    1
    49    23    45    1
    50    25    46    1
    51    25    47    1
    52    26    48    1
    53    26    49    1
    54    27    50    1
    55    27    51    1
    56    28    52    1
    57    28    53    1
    58    29    54    1
    59    29    55    1
    60    30    56    1
    61    30    57    1
