@<TRIPOS>MOLECULE
*****
 21 22 0 0 0
SMALL
GASTEIGER

@<TRIPOS>ATOM
      1 C           2.6966   -1.3449    0.0571 C.3     1  UNL1       -0.1632
      2 N           1.4284   -0.6430    0.0223 N.pl3   1  UNL1       -0.5201
      3 C           0.2831   -1.4458    0.0111 C.2     1  UNL1        0.4700
      4 O           0.2904   -2.6730    0.0130 O.2     1  UNL1       -0.4902
      5 C          -0.9148   -0.6905    0.0017 C.2     1  UNL1        0.0648
      6 N          -2.2191   -1.0882    0.0006 N.pl3   1  UNL1       -0.5897
      7 C          -2.9772    0.0548    0.0037 C.2     1  UNL1        0.3021
      8 N          -2.2267    1.1388   -0.0008 N.pl3   1  UNL1       -0.4519
      9 C          -0.9487    0.6681   -0.0011 C.2     1  UNL1        0.3851
     10 N           0.2030    1.4162    0.0001 N.pl3   1  UNL1       -0.5128
     11 C           0.1283    2.8659    0.0024 C.3     1  UNL1       -0.1712
     12 C           1.4420    0.7676    0.0139 C.2     1  UNL1        0.6439
     13 O           2.5015    1.4004    0.0209 O.2     1  UNL1       -0.5214
     14 H           2.7357   -1.9549    0.9657 H       1  UNL1        0.1888
     15 H           2.7586   -2.0133   -0.8079 H       1  UNL1        0.1895
     16 H           3.5564   -0.6712    0.0468 H       1  UNL1        0.1930
     17 H          -2.5555   -2.0429    0.0027 H       1  UNL1        0.3051
     18 H          -4.0592    0.0321    0.0099 H       1  UNL1        0.1177
     19 H          -0.4319    3.1976   -0.8774 H       1  UNL1        0.1843
     20 H          -0.3868    3.1941    0.9109 H       1  UNL1        0.1840
     21 H           1.1195    3.3260   -0.0220 H       1  UNL1        0.1923
@<TRIPOS>BOND
     1     1     2    1
     2     2     3    1
     3     3     4    2
     4     3     5    1
     5     5     6    1
     6     6     7    1
     7     7     8    2
     8     8     9    1
     9     5     9    2
    10     9    10    1
    11    10    11    1
    12    10    12    1
    13     2    12    1
    14    12    13    2
    15     1    14    1
    16     1    15    1
    17     1    16    1
    18     6    17    1
    19     7    18    1
    20    11    19    1
    21    11    20    1
    22    11    21    1
