@<TRIPOS>MOLECULE
*****
 21 22 0 0 0
SMALL
GASTEIGER

@<TRIPOS>ATOM
      1 C          -3.3321   -0.4199    0.0451 C.3     1  UNL1       -0.2275
      2 N          -2.1067    0.3370    0.0096 N.pl3   1  UNL1       -0.3599
      3 C          -2.0045    1.7035   -0.0078 C.2     1  UNL1        0.2358
      4 N          -0.7468    2.0987   -0.0155 N.pl3   1  UNL1       -0.4458
      5 C          -0.0269    0.9429   -0.0070 C.2     1  UNL1        0.4077
      6 C          -0.8357   -0.1579    0.0004 C.2     1  UNL1       -0.0155
      7 C          -0.3262   -1.4848    0.0001 C.2     1  UNL1        0.5648
      8 O          -1.0104   -2.5018   -0.0102 O.2     1  UNL1       -0.5013
      9 N           1.0510   -1.5178    0.0082 N.pl3   1  UNL1       -0.7740
     10 C           1.9158   -0.4374    0.0039 C.2     1  UNL1        0.7304
     11 O           3.1302   -0.6400    0.0068 O.2     1  UNL1       -0.5197
     12 N           1.3460    0.8323   -0.0064 N.pl3   1  UNL1       -0.5318
     13 C           2.2103    1.9931   -0.0224 C.3     1  UNL1       -0.1662
     14 H          -3.3627   -1.0793   -0.8254 H       1  UNL1        0.1958
     15 H          -3.3560   -0.9982    0.9722 H       1  UNL1        0.1940
     16 H          -4.1833    0.2657    0.0174 H       1  UNL1        0.1705
     17 H          -2.8672    2.3578   -0.0118 H       1  UNL1        0.1223
     18 H           1.4832   -2.4277    0.0072 H       1  UNL1        0.3577
     19 H           2.8614    1.9656    0.8570 H       1  UNL1        0.1877
     20 H           2.8357    1.9561   -0.9200 H       1  UNL1        0.1875
     21 H           1.6391    2.9251   -0.0192 H       1  UNL1        0.1873
@<TRIPOS>BOND
     1     1     2    1
     2     2     3    1
     3     3     4    2
     4     4     5    1
     5     5     6    2
     6     2     6    1
     7     6     7    1
     8     7     8    2
     9     7     9    1
    10     9    10    1
    11    10    11    2
    12    10    12    1
    13     5    12    1
    14    12    13    1
    15     1    14    1
    16     1    15    1
    17     1    16    1
    18     3    17    1
    19     9    18    1
    20    13    19    1
    21    13    20    1
    22    13    21    1
